47 
CELL   12.74900   12.74900   23.59913   90.00000   90.00000   60.00000
 Mo      0.460040      2.390438     11.799565
  S      2.300199      2.390438     13.404609
  S      2.300199      2.390438     10.194521
 Mo      3.220279      3.984063     11.799565
  S      5.060438      3.984063     13.404609
  S      5.060438      3.984063     10.194521
 Mo      5.980519      5.577688     11.799565
  S      7.820678      5.577688     13.404609
  S      7.820678      5.577688     10.194521
 Mo      8.740758      7.171313     11.799565
  S     10.580917      7.171313     13.404609
  S     10.580917      7.171313     10.194521
 Mo      0.460040      5.577688     11.799565
  S      2.300199      5.577688     13.404609
  S      2.300199      5.577688     10.194521
 Mo      3.220279      7.171313     11.799565
  S      5.060438      7.171313     10.194521
 Mo      5.980519      8.764938     11.799565
  S      7.820678      8.764938     13.404609
  S      7.820678      8.764938     10.194521
 Mo      8.740758     10.358563     11.799565
  S     10.580917     10.358563     13.404609
  S     10.580917     10.358563     10.194521
 Mo      0.460040      8.764938     11.799565
  S      2.300199      8.764938     13.404609
  S      2.300199      8.764938     10.194521
 Mo      3.220279     10.358563     11.799565
  S      5.060438     10.358563     13.404609
  S      5.060438     10.358563     10.194521
 Mo      5.980519     11.952188     11.799565
  S      7.820678     11.952188     13.404609
  S      7.820678     11.952188     10.194521
 Mo      8.740758     13.545813     11.799565
  S     10.580917     13.545813     13.404609
  S     10.580917     13.545813     10.194521
 Mo      0.460040     11.952188     11.799565
  S      2.300199     11.952188     13.404609
  S      2.300199     11.952188     10.194521
 Mo      3.220279     13.545813     11.799565
  S      5.060438     13.545813     13.404609
  S      5.060438     13.545813     10.194521
 Mo      5.980519     15.139438     11.799565
  S      7.820678     15.139438     13.404609
  S      7.820678     15.139438     10.194521
 Mo      8.740758     16.733063     11.799565
  S     10.580917     16.733063     13.404609
  S     10.580917     16.733063     10.194521
